Version 4
SHEET 1 880 680
WIRE -16 176 -112 176
WIRE 112 176 64 176
WIRE 208 176 112 176
WIRE -112 192 -112 176
WIRE 208 192 208 176
WIRE 112 272 112 240
WIRE 112 272 -112 272
WIRE 208 272 112 272
WIRE 112 288 112 272
FLAG 112 288 0
SYMBOL cap 96 176 R0
SYMATTR InstName C1
SYMATTR Value 22p
SYMBOL res 80 160 R90
WINDOW 0 0 56 VBottom 2
WINDOW 3 32 56 VTop 2
SYMATTR InstName R1
SYMATTR Value 270
SYMBOL voltage -112 176 R0
WINDOW 123 0 0 Left 0
WINDOW 39 0 0 Left 0
SYMATTR InstName V1
SYMATTR Value AC 1
SYMBOL res 192 176 R0
SYMATTR InstName R2
SYMATTR Value 1k
TEXT 224 128 Left 2 !.ac dec 10 1k 10Meg
